Version 4
SHEET 1 1592 680
WIRE 96 -64 64 -64
WIRE 208 -64 176 -64
WIRE 64 48 64 -64
WIRE 112 48 64 48
WIRE 208 48 208 -64
WIRE 208 48 160 48
WIRE 96 96 0 96
WIRE 272 96 176 96
WIRE 352 96 272 96
WIRE 496 96 432 96
WIRE 784 96 496 96
WIRE 784 112 784 96
WIRE 880 112 784 112
WIRE 912 112 880 112
WIRE 1264 112 1200 112
WIRE 1392 112 1264 112
WIRE 1488 112 1392 112
WIRE 0 128 0 96
WIRE 1264 128 1264 112
WIRE 1488 128 1488 112
WIRE 272 144 272 96
WIRE 496 144 496 96
WIRE 784 144 784 112
WIRE 1392 144 1392 112
WIRE 784 224 784 208
WIRE 880 224 880 112
WIRE 912 224 880 224
WIRE 1264 224 1264 208
WIRE 1264 224 1200 224
WIRE 0 240 0 208
WIRE 272 240 272 208
WIRE 272 240 0 240
WIRE 496 240 496 208
WIRE 496 240 272 240
WIRE 1264 240 1264 224
WIRE 1392 240 1392 208
WIRE 1488 240 1488 208
WIRE 0 272 0 240
WIRE 1056 304 1056 288
WIRE 1264 336 1264 320
FLAG 0 272 0
FLAG 1056 304 0
FLAG 1264 336 0
FLAG 1392 240 0
FLAG 1488 240 0
FLAG 1488 112 OUT
FLAG 784 224 0
SYMBOL voltage 0 112 R0
WINDOW 123 0 0 Left 0
WINDOW 39 0 0 Left 0
SYMATTR InstName V1
SYMATTR Value 22
SYMBOL diode 288 208 R180
WINDOW 0 24 64 Left 2
WINDOW 3 24 0 Left 2
SYMATTR InstName D1
SYMBOL ind 336 112 R270
WINDOW 0 32 56 VTop 2
WINDOW 3 5 56 VBottom 2
SYMATTR InstName L1
SYMATTR Value 1m
SYMBOL cap 480 144 R0
SYMATTR InstName C1
SYMATTR Value 470µ
SYMBOL sw 192 96 R90
SYMATTR InstName S1
SYMATTR Value MOSFET
SYMBOL voltage 80 -64 R270
WINDOW 0 32 56 VTop 2
WINDOW 3 -32 56 VBottom 2
WINDOW 123 0 0 Left 0
WINDOW 39 0 0 Left 0
SYMATTR InstName V2
SYMATTR Value PULSE(0 100 0 1n 1n {D/Fs} {1/Fs} 1Meg)
SYMBOL RES 1248 112 R0
SYMATTR InstName R1
SYMATTR Value 4.53K
SYMATTR SpiceLine tol=1 pwr=0.1
SYMBOL res 1248 336 M180
WINDOW 0 36 76 Left 0
WINDOW 3 36 40 Left 0
SYMATTR InstName R2
SYMATTR Value 4.12K
SYMBOL cap 1376 144 R0
SYMATTR InstName C2
SYMATTR Value 10µ
SYMATTR SpiceLine Rser=5m
SYMBOL cap 768 144 R0
SYMATTR InstName C3
SYMATTR Value 10µ
SYMATTR SpiceLine Rser=5m
SYMBOL PowerProducts\\LT1965 1056 176 R0
SYMATTR InstName U1
SYMBOL res 1472 112 R0
SYMATTR InstName Rload1
SYMATTR Value 2.3
TEXT -488 112 Left 2 !.tran 500m
TEXT 264 288 Left 2 !.model MOSFET SW(Ron=1u Roff=100Meg Vt=90)
TEXT -488 56 Left 2 ;Switching frequency: 16 kHz
TEXT -488 184 Left 2 !.param Fs = 16k\n.param D = 0.5
TEXT 216 -168 Left 4 ;BUCK --> LDO --> USB charger
TEXT 1168 -96 Left 2 !.param Fss=30k
TEXT 1176 -48 Left 2 !.param D2=0.45
TEXT 1408 320 Left 0 !;tran 10m startup
